2/7/26 - Eric M. Roy (emroy@mit.edu)

GEOS-Chem and Stilt model data for each case study is contained in respective subdirectories.

Model data can be accessed at Zenodo repository accompanying this paper (10.5281/zenodo.18329342)
